14
Aniline,^1A_1,CC3,cc-pVTZ
C    0.00000000            0.00000000           -0.94534106
C    1.20290509            0.00000000           -0.22996578
C   -1.20290509            0.00000000           -0.22996578
C    0.00000000            0.00000000            1.86803670
C    1.19767435            0.00000000            1.15843731
C   -1.19767435            0.00000000            1.15843731
N    0.00000000            0.00000000           -2.31901749
H    2.13778346            0.00000000            1.68705664
H   -2.13778346            0.00000000            1.68705664
H    0.00000000            0.00000000            2.94483516
H    2.13893740            0.00000000           -0.76739673
H   -2.13893740            0.00000000           -0.76739673
H   -0.85799520            0.00000000           -2.82979780
H    0.85799520            0.00000000           -2.82979780