20
Dimethylaniline,^1A_1,CCSD(T),cc-pVTZ
C    0.00000000            0.00000000            2.59131130
C    1.19437570            0.00000000            1.87931183
C   -1.19437570            0.00000000            1.87931183
C    1.20341586            0.00000000            0.49129817
C   -1.20341586            0.00000000            0.49129817
C    0.00000000            0.00000000           -0.23598784
C    1.24959519            0.00000000           -2.32665996
C   -1.24959519            0.00000000           -2.32665996
N    0.00000000            0.00000000           -1.60825836
H    2.14804803            0.00000000           -0.02298998
H   -2.14804803            0.00000000           -0.02298998
H    2.13613345            0.00000000            2.40538502
H   -2.13613345            0.00000000            2.40538502
H    0.00000000            0.00000000            3.66801827
H    1.04258710            0.00000000           -3.39201062
H   -1.04258710            0.00000000           -3.39201062
H    1.85106452           -0.88348965           -2.09853161
H    1.85106452            0.88348965           -2.09853161
H   -1.85106452            0.88348965           -2.09853161
H   -1.85106452           -0.88348965           -2.09853161
