16
Quinoxaline,^1A_1,CC3,cc-pVTZ
C    0.00000000            0.70821660            0.02446929
C    0.00000000           -0.70821660            0.02446929
C    0.00000000            1.40400848           -1.20521415
C    0.00000000           -1.40400848           -1.20521415
C    0.00000000            0.70760487           -2.38697805
C    0.00000000           -0.70760487           -2.38697805
C    0.00000000            0.70876240            2.29011437
C    0.00000000           -0.70876240            2.29011437
N    0.00000000            1.42036382            1.18651665
N    0.00000000           -1.42036382            1.18651665
H    0.00000000            2.48139632           -1.17651215
H    0.00000000           -2.48139632           -1.17651215
H    0.00000000            1.23813120           -3.32517722
H    0.00000000           -1.23813120           -3.32517722
H    0.00000000            1.24552354            3.22807736
H    0.00000000           -1.24552354            3.22807736