9
Thiophene,^1A_1,CC3,aug-cc-pVTZ
C    0.00000000            1.23479556           -0.05216852
C    0.00000000           -1.23479556           -0.05216852
C    0.00000000            0.71106451           -1.31393498
C    0.00000000           -0.71106451           -1.31393498
S    0.00000000            0.00000000            1.14964115
H    0.00000000            2.27031849            0.23589289
H    0.00000000           -2.27031849            0.23589289
H    0.00000000            1.31638150           -2.20544335
H    0.00000000           -1.31638150           -2.20544335