15
Aminobenzonitrile,^1A_1,CC3,cc-pVTZ
C    0.00000000            0.00000000           -1.78237803
C    1.20562318            0.00000000           -1.06602913
C   -1.20562318            0.00000000           -1.06602913
C    0.00000000            0.00000000            1.02612499
C    1.20309056            0.00000000            0.31620347
C   -1.20309056            0.00000000            0.31620347
C    0.00000000            0.00000000            2.45145106
N    0.00000000            0.00000000           -3.14791690
N    0.00000000            0.00000000            3.61459851
H    2.14197992            0.00000000           -1.60135147
H   -2.14197992            0.00000000           -1.60135147
H    2.13631189            0.00000000            0.85489503
H   -2.13631189            0.00000000            0.85489503
H   -0.85820433            0.00000000           -3.65983307
H    0.85820433            0.00000000           -3.65983307