21
Dimethylaminobenzonitrile,^1A_1,CCSD(T),cc-pVTZ
C    0.00000000            0.00000000           -1.03762759
C    1.20594890            0.00000000           -0.30848248
C   -1.20594890            0.00000000           -0.30848248
C    0.00000000            0.00000000            1.78562909
C    1.19970319            0.00000000            1.07319129
C   -1.19970319            0.00000000            1.07319129
C    0.00000000            0.00000000            3.21104090
C    1.25142566            0.00000000           -3.12313457
C   -1.25142566            0.00000000           -3.12313457
N    0.00000000            0.00000000           -2.40105295
N    0.00000000            0.00000000            4.37303050
H    2.15094350            0.00000000           -0.82077279
H   -2.15094350            0.00000000           -0.82077279
H    2.13453785            0.00000000            1.60922778
H   -2.13453785            0.00000000            1.60922778
H    1.04161449            0.00000000           -4.18734140
H   -1.04161449            0.00000000           -4.18734140
H    1.84974516           -0.88431708           -2.89461761
H    1.84974516            0.88431708           -2.89461761
H   -1.84974516            0.88431708           -2.89461761
H   -1.84974516           -0.88431708           -2.89461761