16
Nitroaniline,^1A_1,CC3,cc-pVTZ
C    0.00000000            0.00000000           -2.14801358
C    1.20688574            0.00000000           -1.43307045
C   -1.20688574            0.00000000           -1.43307045
C    0.00000000            0.00000000            0.63048331
C    1.20815565            0.00000000           -0.05123411
C   -1.20815565            0.00000000           -0.05123411
N    0.00000000            0.00000000            2.08523739
N    0.00000000            0.00000000           -3.51236894
O    1.08453908            0.00000000            2.65335167
O   -1.08453908            0.00000000            2.65335167
H    2.14210473            0.00000000           -1.96957121
H   -2.14210473            0.00000000           -1.96957121
H    2.12746468            0.00000000            0.50566732
H   -2.12746468            0.00000000            0.50566732
H   -0.85796734            0.00000000           -4.02433332
H    0.85796734            0.00000000           -4.02433332