22
Nitrodimethylaniline,^1A_1,CCSD(T),cc-pVTZ
C    0.00000000            0.00000000           -1.43350797
C    1.20804219            0.00000000           -0.70539471
C   -1.20804219            0.00000000           -0.70539471
C    0.00000000            0.00000000            1.36107752
C    1.20557908            0.00000000            0.67628100
C   -1.20557908            0.00000000            0.67628100
C    1.25152635            0.00000000           -3.51873760
C   -1.25152635            0.00000000           -3.51873760
N    0.00000000            0.00000000           -2.79572246
N    0.00000000            0.00000000            2.81443952
O    1.08458905            0.00000000            3.38335219
O   -1.08458905            0.00000000            3.38335219
H    2.15207548            0.00000000           -1.21907713
H   -2.15207548            0.00000000           -1.21907713
H    2.12679902            0.00000000            1.23060782
H   -2.12679902            0.00000000            1.23060782
H    1.04101752            0.00000000           -4.58274442
H   -1.04101752            0.00000000           -4.58274442
H    1.84946540           -0.88435072           -3.29010255
H    1.84946540            0.88435072           -3.29010255
H   -1.84946540            0.88435072           -3.29010255
H   -1.84946540           -0.88435072           -3.29010255