8
Thioacrolein,^1A^\prime,CC3,aug-cc-pVTZ
C    2.26325482            0.00000000           -0.46737002
C    0.93372806            0.00000000           -0.65617151
C    0.00471961            0.00000000            0.45188177
S   -1.62198503            0.00000000            0.30987938
H    2.95091478            0.00000000           -1.29950822
H    2.68266516            0.00000000            0.52991541
H    0.51127228            0.00000000           -1.65069059
H    0.46096733            0.00000000            1.43807578